e:/SPH/Open Source SPH Codes/DualSPHysics-master/README.md
e:/SPH/Open Source SPH Codes/DualSPHysics-master/#README.md#
