e:/SPH/Open Source SPH Codes/DualSPHysics-master/DualSPHysics-master/src/source/main.cpp
e:/SPH/Open Source SPH Codes/DualSPHysics-master/DualSPHysics-master/src/source/#main.cpp#
